237       
active_int2 
C 3.193217 2.596243 4.236793
C 3.367241 3.934710 3.555645
O 2.765759 4.943575 3.943300
N 4.262132 3.984186 2.538832
C 4.593905 5.241755 1.906549
C 3.472869 5.889357 1.093077
O 3.505410 7.079797 0.799435
N 2.479897 5.047344 0.739670
C 1.312243 5.458565 -0.003095
C 0.290896 6.242099 0.826989
O -0.641647 6.819637 0.267435
C 0.606170 4.219254 -0.580830
C -0.245435 3.415910 0.407756
C 0.532351 2.655898 1.465780
N -0.139856 2.252938 2.555882
O 1.715742 2.335001 1.286918
N 0.395086 6.146826 2.167002
C -0.595027 6.773872 3.013640
C -5.242244 -2.437621 2.500946
C -4.832054 -1.203641 3.284149
O -5.179830 -1.006696 4.444498
N -4.064491 -0.334919 2.568351
C -3.329528 0.753914 3.196517
C -2.283171 0.229709 4.211315
O -2.165522 0.681197 5.344246
C -4.194005 1.886253 3.780957
C -3.366672 3.172788 3.886013
C -5.441776 2.129911 2.931974
N -1.480650 -0.760859 3.733506
C -0.616288 -1.474823 4.629173
C 0.837238 -0.985825 4.692227
O 1.231504 0.012981 4.082114
N 1.638697 -1.739320 5.468915
C 3.068375 -1.499727 5.696047
C -3.809242 -3.832981 -1.688881
C -2.926851 -4.689084 -0.765874
O -2.664695 -5.850231 -1.094530
C -3.658541 -2.322555 -1.555025
N -2.504845 -4.132079 0.396022
C -1.435435 -4.729286 1.184159
C -1.683264 -4.653355 2.684029
C -0.599658 -5.387681 3.491827
C 0.812497 -4.835944 3.252460
C -0.946181 -5.398294 4.984213
C 8.881928 -3.297886 1.868152
C 7.374286 -3.052687 1.931924
C 7.029732 -1.705080 2.581452
C 5.541711 -1.380578 2.448842
O 4.717598 -2.099713 3.045615
O 5.219338 -0.390280 1.701786
C -2.066570 3.680456 -4.364397
C -1.125789 2.805451 -3.551532
O -1.527839 2.161021 -2.565748
C -3.159039 4.427659 -3.573776
C -4.286157 3.514079 -3.081945
C -2.583647 5.258244 -2.424521
N 0.138157 2.701907 -3.974360
C 1.070792 1.746434 -3.415610
C 2.384675 1.829169 -4.203739
O 2.413954 2.379888 -5.306686
N 3.410420 1.234178 -3.583893
C 4.777772 1.216373 -4.060064
C 5.195265 -0.131209 -4.683690
O 6.028946 -0.165642 -5.588714
C 5.707341 1.523899 -2.856447
C 7.184306 1.534712 -3.228452
O 5.326642 2.771846 -2.304778
N 4.662474 -1.234946 -4.111053
C 5.168643 -2.574506 -4.356975
C 5.625782 -3.237140 -3.046886
C 6.731375 -2.460254 -2.375479
C 8.043694 -2.537542 -2.843623
C 6.467783 -1.591436 -1.313743
C 9.062974 -1.780800 -2.274092
C 7.470687 -0.817138 -0.742790
C 8.771140 -0.914548 -1.223063
O 9.733800 -0.138451 -0.626321
C -8.900950 -0.548155 -3.794792
C -8.155363 0.737862 -3.410444
C -7.197074 0.572984 -2.271464
C -5.832016 0.500460 -2.261640
N -7.612309 0.486878 -0.958654
C -6.539303 0.377979 -0.182101
N -5.442867 0.384796 -0.945447
C -13.977628 -0.139263 -2.012368
C -13.580025 -0.339109 -0.547850
C -12.397002 0.522721 -0.102086
C -11.009560 0.064769 -0.587957
O -10.883795 -1.023423 -1.171854
O -10.062978 0.883714 -0.308683
N 2.519685 -0.394726 1.500250
C 2.136405 -1.296252 0.383463
C 2.655194 -0.672136 -0.920062
O 2.996811 0.539250 -0.887280
C 0.626588 -1.569991 0.328646
C -0.256530 -0.378273 -0.040884
C -1.758438 -0.730568 -0.130885
N -2.597764 0.470523 -0.379874
O -2.200570 -1.391161 0.926345
O 2.675930 -1.401372 -1.940491
O -3.214661 0.364721 -4.005693
O 4.886700 2.030916 0.474692
H -8.191948 -1.329767 -4.090286
H 9.106816 -4.272728 1.420249
H 2.147444 2.458815 4.511902
H 5.440767 5.068339 1.236586
H -2.538762 3.014831 -5.100589
H 0.669997 0.727319 -3.494640
H 4.389647 -3.189894 -4.825185
H -13.139016 -0.394030 -2.668043
H -14.258879 0.904402 -2.204809
H -9.568181 -0.353048 -4.641784
H -4.854069 -4.111126 -1.497004
H -1.345952 -5.775609 0.877047
H 9.332419 -3.272963 2.869020
H 3.359303 -2.034739 6.602525
H 3.669270 -1.832194 4.842576
H -5.945711 -3.023848 3.093043
H -0.356431 6.540256 4.052937
H -0.605238 7.860573 2.876493
H -14.829650 -0.773966 -2.284043
H -9.504526 -0.911623 -2.956072
H 5.998451 -2.480611 -5.061734
H -1.594693 6.395367 2.775853
H 3.223297 -0.428083 5.844525
H 9.370399 -2.526951 1.260541
H -0.492955 -4.232749 0.925928
H -3.577166 -4.162022 -2.705635
H -1.471426 4.405515 -4.933415
H 1.240125 1.937132 -2.352248
H 4.892112 5.975800 2.659399
H 3.515123 1.756486 3.615763
H 3.790074 2.601084 5.155830
H -14.444759 -0.111940 0.091893
H -13.324886 -1.391791 -0.385804
H -12.534310 1.567200 -0.410539
H -12.341866 0.545149 0.994166
H -7.587795 1.118455 -4.267264
H -8.885028 1.509274 -3.137980
H -8.678512 0.564294 -0.649702
H -5.098107 0.509524 -3.059302
H -6.538968 0.308865 0.894216
H -5.708079 -2.161993 1.548315
H -4.363604 -3.049064 2.263977
H -2.554927 -3.113695 0.514185
H -1.746203 -3.599358 2.990384
H -2.663117 -5.097543 2.904323
H -0.602638 -6.433526 3.149248
H -0.206823 -5.971866 5.556024
H -0.971075 -4.381271 5.397062
H -1.932776 -5.841472 5.161802
H 1.541909 -5.358729 3.882795
H 1.141506 -4.942596 2.213948
H 0.878645 -3.768462 3.500142
H 6.967991 -3.078852 0.914977
H 6.874321 -3.851755 2.490308
H 7.281470 -1.746119 3.649208
H 7.624454 -0.906672 2.127192
H 5.959634 -4.257215 -3.277424
H 4.765513 -3.326989 -2.373290
H 3.945886 -1.133303 -3.389247
H 5.292130 1.230350 0.869980
H 4.060407 1.666282 0.093669
H -2.779104 -0.416153 -3.618857
H -2.785770 1.082661 -3.508940
H -3.933401 2.843734 -2.293319
H -5.108878 4.110665 -2.671618
H -1.745836 5.887661 -2.744865
H -3.347029 5.917580 -1.998732
H -3.601104 5.123047 -4.301572
H 0.460841 3.154217 -4.823793
H 3.263604 0.967798 -2.602620
H 0.290952 1.591128 3.203743
H -1.064099 2.598545 2.761320
H 4.897079 1.981939 -4.830393
H 5.535031 0.735809 -2.111722
H 7.521754 0.557329 -3.584042
H 7.371409 2.276641 -4.011923
H 7.767282 1.802914 -2.341482
H 8.277173 -3.198553 -3.675510
H 10.079902 -1.859372 -2.654941
H 7.236863 -0.139422 0.070250
H 5.458705 -1.505357 -0.918365
H 10.558862 -0.226486 -1.117133
H 5.299793 2.666362 -1.336659
H 4.533813 3.132281 2.043318
H 2.568155 4.062261 0.968279
H 1.233429 5.757370 2.589695
H 3.578766 -0.398691 1.621695
H 2.234696 0.581295 1.318882
H 2.114142 -0.664183 2.400712
H 2.644184 -2.251365 0.547425
H 0.475557 -2.375493 -0.394531
H 0.309452 -1.972538 1.298686
H -0.188813 0.381225 0.747430
H 0.079589 0.091306 -0.974458
H -2.236580 0.992983 -1.179442
H -2.483290 1.082696 0.429523
H -2.228823 4.609841 -1.617287
H -4.687790 2.897629 -3.894215
H -6.130280 1.282600 2.989898
H -5.975166 3.017357 3.290070
H -5.183225 2.298859 1.878067
H -3.082846 3.535266 2.885200
H -3.950709 3.971057 4.356258
H -2.467485 3.025001 4.492069
H -4.501283 1.583814 4.785523
H -2.743522 1.184950 2.373118
H -1.594379 -1.076377 2.762585
H -0.607996 -2.529065 4.342448
H -1.035483 -1.405136 5.639006
H 1.247631 -2.596383 5.831768
H -3.564104 -0.744650 1.761199
H -0.050308 4.551882 -1.386087
H 1.366990 3.568749 -1.022313
H 1.618946 6.116325 -0.821596
H -0.775146 2.648864 -0.173840
H -1.015129 4.045008 0.870604
S -1.942441 -1.751122 -1.789784
H -4.442111 0.337192 -0.635717
H -4.314308 -1.828192 -2.276730
H -3.963339 -1.990644 -0.556612
C 0.684052 -8.611113 -1.000635
C 1.259087 -7.268621 -0.562725
C 0.807836 -6.142372 -1.487244
C 1.518790 -4.832661 -1.198988
N 1.602498 -3.973849 -2.237242
O 1.999227 -4.580869 -0.091598
H -0.411492 -8.577271 -1.021976
H 0.985933 -9.416823 -0.321341
H 1.027610 -8.876790 -2.008214
H 2.354421 -7.313743 -0.546522
H 0.950420 -7.035923 0.462291
H 0.980881 -6.423387 -2.535025
H -0.275434 -5.982895 -1.384614
H 1.056698 -4.139903 -3.068310
H 1.979430 -3.030154 -2.088136
