237       
active_TS2 
C 3.192891 2.596576 4.237136
C 3.356058 3.938882 3.560087
O 2.732861 4.936555 3.943505
N 4.261602 4.003756 2.555024
C 4.587295 5.266326 1.929230
C 3.469530 5.904988 1.104830
O 3.493705 7.096908 0.816935
N 2.486915 5.056532 0.738130
C 1.315717 5.468646 0.001810
C 0.311654 6.272828 0.831605
O -0.613248 6.864165 0.274601
C 0.580867 4.228450 -0.536980
C -0.259342 3.457881 0.486129
C 0.523007 2.671825 1.521845
N -0.161210 2.220291 2.588053
O 1.706675 2.357083 1.340296
N 0.408087 6.164104 2.171702
C -0.595319 6.773573 3.013624
C -5.241320 -2.438182 2.501169
C -4.846388 -1.202424 3.287830
O -5.239161 -0.974594 4.425463
N -4.046673 -0.342700 2.589972
C -3.352302 0.777257 3.210951
C -2.378286 0.313216 4.324156
O -2.346587 0.823023 5.436057
C -4.254504 1.935437 3.677467
C -3.437267 3.230014 3.762183
C -5.449590 2.126368 2.744203
N -1.533029 -0.687583 3.951358
C -0.677902 -1.325821 4.909616
C 0.803893 -0.942612 4.816367
O 1.203855 -0.010351 4.111258
N 1.618847 -1.689551 5.581131
C 3.068260 -1.500085 5.695484
C -3.809651 -3.832942 -1.688746
C -3.005177 -4.696055 -0.709177
O -2.917350 -5.911806 -0.886560
C -3.481529 -2.346810 -1.726032
N -2.460225 -4.076738 0.380516
C -1.434772 -4.729443 1.183833
C -1.584920 -4.515075 2.684395
C -0.453424 -5.208381 3.464133
C 0.906959 -4.533231 3.243998
C -0.787680 -5.317416 4.954976
C 0.684305 -8.610567 -0.999009
C 1.208474 -7.255448 -0.528330
C 0.748991 -6.117180 -1.436341
C 1.511400 -4.823002 -1.188906
N 1.422057 -3.900520 -2.171267
O 2.197467 -4.651946 -0.177185
C 8.882203 -3.297328 1.868388
C 7.384931 -3.023907 1.980947
C 7.094678 -1.668849 2.639206
C 5.616897 -1.307426 2.528601
O 4.778933 -2.028209 3.104830
O 5.311822 -0.288214 1.814268
C -2.065067 3.680357 -4.363510
C -1.130208 2.833844 -3.511276
O -1.514706 2.299085 -2.454449
C -3.173449 4.442882 -3.614000
C -4.297312 3.530398 -3.112331
C -2.624067 5.320109 -2.486102
N 0.104882 2.638148 -3.980731
C 1.037873 1.696222 -3.399292
C 2.352443 1.774753 -4.188497
O 2.370608 2.288092 -5.309429
N 3.392737 1.223419 -3.553031
C 4.755822 1.214666 -4.044483
C 5.177026 -0.127652 -4.677036
O 5.998977 -0.150825 -5.593410
C 5.696203 1.528496 -2.852421
C 7.169929 1.535333 -3.237342
O 5.319594 2.782222 -2.308746
N 4.660720 -1.235320 -4.100224
C 5.168025 -2.571645 -4.358346
C 5.643863 -3.237311 -3.056290
C 6.746224 -2.453360 -2.387113
C 8.054418 -2.502037 -2.870286
C 6.482158 -1.607281 -1.307207
C 9.068521 -1.740942 -2.296899
C 7.479287 -0.829387 -0.730717
C 8.775922 -0.899525 -1.226159
O 9.734542 -0.121735 -0.624219
C -8.900796 -0.547948 -3.795144
C -8.130486 0.747203 -3.514040
C -7.135065 0.586085 -2.412057
C -5.777016 0.449463 -2.451237
N -7.518027 0.505480 -1.088665
C -6.432054 0.336732 -0.345708
N -5.360847 0.304168 -1.147235
C -13.977371 -0.139509 -2.012151
C -13.517637 -0.123024 -0.551018
C -12.300349 0.766353 -0.279642
C -10.930331 0.182562 -0.671447
O -10.847281 -0.970723 -1.118351
O -9.947432 0.985910 -0.470311
N 2.634146 -0.362374 1.579081
C 2.273021 -1.287683 0.472596
C 2.777861 -0.675847 -0.842504
O 3.081070 0.547924 -0.827714
C 0.761924 -1.542740 0.410999
C -0.042584 -0.348703 -0.091386
C -1.531964 -0.501543 0.103421
N -2.386332 0.496134 -0.396760
O -1.973415 -1.214881 1.028220
O 2.800924 -1.420705 -1.847209
O -3.078640 0.329589 -3.953709
O 4.948326 2.079750 0.497952
H -8.210732 -1.348195 -4.084898
H -0.411264 -8.615098 -1.041190
H 9.074830 -4.277856 1.417889
H 3.571232 1.765911 3.635625
H 5.443693 5.102484 1.269200
H -2.520250 2.987015 -5.084491
H 0.642143 0.673575 -3.464672
H 4.384754 -3.187517 -4.817676
H -13.172934 -0.508840 -2.656273
H -14.251774 0.868422 -2.349830
H -9.610268 -0.394592 -4.616220
H -4.870120 -3.981141 -1.434742
H -1.488206 -5.798258 0.958773
H 1.001402 -9.415748 -0.326067
H 9.366622 -3.276772 2.853527
H 3.413183 -2.069845 6.560409
H 3.594400 -1.828074 4.792672
H -5.957086 -2.171115 1.715099
H -1.589726 6.389158 2.761902
H -0.365451 6.532281 4.053261
H -14.849590 -0.790207 -2.146422
H -9.464451 -0.868812 -2.912570
H 1.056327 -8.846839 -2.003644
H 5.988508 -2.472267 -5.073345
H -0.615026 7.861427 2.887594
H 3.275242 -0.438838 5.857422
H 9.364787 -2.538540 1.241160
H -0.451244 -4.374236 0.850874
H -3.650969 -4.281745 -2.672718
H -1.462656 4.389385 -4.945109
H 1.202655 1.912040 -2.340022
H 4.869314 6.001647 2.687095
H 3.744831 2.623459 5.183339
H 2.140213 2.427438 4.463976
H -14.350790 0.220088 0.078671
H -13.277904 -1.145267 -0.239464
H -12.405475 1.737690 -0.780776
H -12.236199 0.996730 0.791502
H -7.593613 1.078499 -4.409794
H -8.834830 1.541229 -3.241120
H -8.590037 0.616624 -0.765595
H -5.053070 0.427510 -3.258836
H -6.401180 0.250933 0.728767
H -4.378769 -2.908826 2.014164
H -5.716402 -3.151907 3.175083
H -2.358431 -3.068880 0.328874
H -1.591338 -3.437895 2.908217
H -2.559005 -4.908202 3.003799
H -0.377631 -6.235701 3.077479
H 0.007882 -5.841015 5.498596
H -0.909775 -4.328919 5.416685
H -1.724896 -5.862729 5.114035
H 1.240575 -4.582155 2.202422
H 0.872573 -3.474007 3.531299
H 1.684288 -5.009812 3.852719
H 2.303305 -7.268447 -0.493046
H 0.877910 -7.055047 0.497537
H 0.882795 -6.395970 -2.489971
H -0.326688 -5.930966 -1.307895
H 6.944329 -3.042188 0.978347
H 6.886085 -3.811358 2.556190
H 7.364022 -1.718539 3.702313
H 7.702312 -0.885858 2.175221
H 5.987295 -4.251945 -3.296375
H 4.790809 -3.340464 -2.375689
H 3.963181 -1.140337 -3.359184
H 1.873596 -2.993796 -2.023299
H 0.629424 -3.920090 -2.799379
H 5.380173 1.302827 0.909687
H 4.141983 1.676871 0.110394
H -2.609704 -0.471184 -3.617139
H -2.691884 1.027140 -3.402449
H -3.942762 2.875853 -2.311422
H -5.128563 4.126996 -2.719095
H -1.787611 5.945242 -2.818692
H -3.401049 5.987123 -2.097887
H -3.612986 5.109133 -4.370209
H 0.405665 3.020943 -4.871709
H 3.261830 0.976710 -2.565092
H 0.279111 1.563685 3.234180
H -1.065740 2.597739 2.823227
H 4.861381 1.982216 -4.814952
H 5.530572 0.746474 -2.099683
H 7.504363 0.553490 -3.583185
H 7.350411 2.266822 -4.032011
H 7.760325 1.815013 -2.358751
H 8.288640 -3.143599 -3.716986
H 10.082265 -1.796834 -2.690119
H 7.244716 -0.170138 0.097579
H 5.474059 -1.543566 -0.906119
H 10.553704 -0.185108 -1.128506
H 5.330964 2.695676 -1.338954
H 4.552665 3.157336 2.060665
H 2.576026 4.071857 0.967633
H 1.240882 5.767167 2.598990
H 3.694362 -0.333868 1.703178
H 2.324074 0.602976 1.386473
H 2.234992 -0.636325 2.481855
H 2.784164 -2.237073 0.655110
H 0.577562 -2.395312 -0.246425
H 0.414677 -1.835819 1.409475
H 0.218153 0.543838 0.490897
H 0.180089 -0.116929 -1.134607
H -1.980169 1.072673 -1.133757
H -2.767727 1.065291 0.354490
H -2.273280 4.706532 -1.650760
H -4.685815 2.895426 -3.916330
H -6.135650 1.276886 2.799458
H -6.009424 3.024352 3.026341
H -5.130734 2.251170 1.700235
H -3.094244 3.539896 2.762453
H -4.050243 4.048818 4.152912
H -2.575841 3.120959 4.428439
H -4.621370 1.685967 4.676641
H -2.706402 1.166233 2.410268
H -1.556182 -1.028345 2.992157
H -0.769491 -2.411819 4.809721
H -1.036206 -1.046434 5.905780
H 1.214876 -2.499064 6.028281
H -3.539763 -0.752780 1.803997
H -0.092282 4.556423 -1.330460
H 1.319064 3.557782 -0.986992
H 1.616453 6.105813 -0.834755
H -0.837866 2.709831 -0.070969
H -0.991266 4.111945 0.974608
S -1.752981 -1.982714 -2.169172
H -4.379306 0.176285 -0.873683
H -4.164024 -1.871717 -2.438985
H -3.708912 -1.902466 -0.743038
