237       
inactive_val51_TS4
H 5.368257 1.345236 0.785720
H 4.123590 1.773533 0.018265
H -2.727593 -0.488624 -4.198792
H -2.696752 0.905468 -3.589506
N 4.305876 4.020962 2.569968
N 2.496593 5.044923 0.782037
N -0.249162 2.059457 2.447002
N 0.380659 6.110116 2.178199
C 3.239506 2.584286 4.233369
C 3.416095 3.941182 3.590274
C 4.606412 5.291225 1.947029
C 3.481068 5.904596 1.111973
C 1.327064 5.416188 0.021361
C 0.275080 6.177265 0.835200
C 0.677713 4.156411 -0.582115
C -0.209218 3.326213 0.352043
C 0.506225 2.589779 1.465366
C -0.596415 6.771389 3.015412
O 2.811897 4.935976 4.006434
O 3.508911 7.086412 0.783849
O -0.665081 6.728669 0.264455
O 1.732297 2.410159 1.449948
H 3.685895 2.619400 5.232921
H 5.471102 5.150382 1.292724
H -0.372031 6.536563 4.057679
H -0.572750 7.857470 2.872952
H -1.603818 6.421618 2.770166
H 4.865302 6.030312 2.709172
H 2.175804 2.370275 4.344482
H 3.705815 1.775240 3.664801
H 0.174144 1.393904 3.095462
H -1.255213 2.109519 2.405872
H 4.584608 3.183012 2.058418
H 2.575883 4.071707 1.059574
H 1.228096 5.744476 2.601907
H -2.405929 1.491597 -0.967211
H -2.800561 1.554793 0.637460
H 0.051350 4.470705 -1.418877
H 1.475694 3.527009 -0.988814
H 1.629987 6.086015 -0.788639
H -0.679602 2.546995 -0.261772
H -1.026203 3.932065 0.761959
H -3.657821 0.605482 -0.366775
N -2.546965 -4.215828 0.395814
N 2.643353 -0.269690 1.494521
C 2.307885 -1.211044 0.400613
C -3.808937 -3.833145 -1.688802
C -2.879962 -4.705723 -0.828394
C -3.711491 -2.322899 -1.435399
C -1.435216 -4.731471 1.184333
C -1.796397 -4.956726 2.649470
C -0.775431 -5.838758 3.388606
C 0.675487 -5.357727 3.262551
C -1.171111 -5.992152 4.859446
C 2.752723 -0.584907 -0.926771
C 0.828829 -1.605983 0.358116
C -0.177116 -0.482714 0.061853
C -1.573524 -1.077804 0.016054
O -2.491827 -5.797934 -1.244472
O -2.106872 -1.526287 1.032024
O 2.796309 -1.348230 -1.920855
O 3.004870 0.647218 -0.929658
S -2.023361 -1.645682 -1.641314
H -4.843875 -4.151126 -1.511366
H -1.137138 -5.681391 0.730143
H -0.583028 -4.049975 1.085867
H -3.572439 -4.075306 -2.728045
H -2.747694 -3.238683 0.583549
H -1.912158 -3.990373 3.161533
H -2.777904 -5.446674 2.691105
H -0.826901 -6.833295 2.920651
H -0.492664 -6.674905 5.384209
H -1.132757 -5.023078 5.375577
H -2.191201 -6.380427 4.962196
H 1.352479 -6.067340 3.752678
H 1.006042 -5.252531 2.223657
H 0.820684 -4.387519 3.752811
H 0.737612 -2.392126 -0.393978
H 0.576449 -2.077741 1.312522
H -0.179383 0.249144 0.869803
H 0.052223 0.035311 -0.875443
H -4.352484 -1.779502 -2.132403
H -4.060464 -2.023805 -0.441778
H 2.883428 -2.124935 0.575595
H 3.704934 -0.242466 1.612963
H 2.327174 0.692339 1.295061
H 2.248286 -0.530995 2.403582
N 1.856480 -4.001411 -2.168268
C 0.683969 -8.611248 -0.998889
C 1.301914 -7.291877 -0.546232
C 0.953556 -6.155974 -1.503519
C 1.633902 -4.848266 -1.139480
O 1.954782 -4.578684 0.020022
H -0.406412 -8.524670 -1.070126
H 0.916304 -9.421705 -0.298599
H 1.059522 -8.904852 -1.986942
H 2.391757 -7.389056 -0.471429
H 0.950886 -7.033145 0.458590
H 1.221869 -6.435468 -2.531277
H -0.133381 -5.987571 -1.500097
H 1.475593 -4.205038 -3.078762
H 2.215824 -3.054086 -2.002277
C 8.881645 -3.300425 1.872291
C 7.383520 -3.002218 1.933122
C 7.087304 -1.635295 2.566269
C 5.613227 -1.259518 2.428113
O 4.760190 -1.938700 3.032625
O 5.326633 -0.269239 1.665891
H 9.071928 -4.290514 1.442420
H 9.334595 -3.272277 2.871802
H 9.394764 -2.558292 1.249259
H 6.976472 -3.026233 0.916276
H 6.856296 -3.776476 2.501349
H 7.336946 -1.672149 3.634526
H 7.709465 -0.863960 2.102312
N 0.162098 2.720676 -4.039837
N 3.444250 1.259385 -3.661799
N 4.683258 -1.222183 -4.134410
C -2.064784 3.680001 -4.360882
C -1.104678 2.779257 -3.599575
C -3.153569 4.377179 -3.520710
C -4.271930 3.431735 -3.073236
C -2.569781 5.146208 -2.333378
C 1.105280 1.764376 -3.505729
C 2.416571 1.845601 -4.294686
C 4.812109 1.226813 -4.134986
C 5.222662 -0.134921 -4.733151
C 5.742959 1.550905 -2.937016
C 7.220339 1.541340 -3.308117
C 5.168202 -2.571923 -4.356960
C 5.652457 -3.213378 -3.046146
C 6.770283 -2.429362 -2.404100
C 8.072983 -2.506032 -2.898252
C 6.527598 -1.559713 -1.338144
C 9.103024 -1.749942 -2.347580
C 7.541248 -0.787095 -0.784311
C 8.832567 -0.885791 -1.288991
O -1.467354 2.079636 -2.638495
O 2.450801 2.375326 -5.405788
O 6.051775 -0.195077 -5.640304
O 5.370551 2.813337 -2.414265
O 9.806726 -0.112656 -0.708573
H -2.541385 3.038810 -5.114956
H 0.706193 0.744785 -3.590362
H 4.372289 -3.190269 -4.792561
H 5.980942 -2.504998 -5.084613
H -1.481617 4.434802 -4.903579
H 1.280372 1.943476 -2.441075
H 5.981536 -4.236882 -3.268624
H 4.806548 -3.294564 -2.353924
H 3.980390 -1.095625 -3.404329
H -3.925972 2.722168 -2.317449
H -5.100037 3.998663 -2.633557
H -1.741618 5.802306 -2.625161
H -3.333694 5.771342 -1.859863
H -3.602711 5.111167 -4.205398
H 0.460764 3.196073 -4.883827
H 3.296504 1.027655 -2.674468
H 4.936903 1.977543 -4.919024
H 5.563992 0.779302 -2.175529
H 7.550024 0.553453 -3.641453
H 7.413027 2.263636 -4.108243
H 7.805788 1.825648 -2.427820
H 8.290386 -3.166205 -3.735010
H 10.112076 -1.827799 -2.748742
H 7.323231 -0.109704 0.033544
H 5.525277 -1.472535 -0.926267
H 10.620861 -0.194223 -1.218448
H 5.364942 2.740855 -1.443209
H -2.200553 4.454384 -1.569337
H -4.670524 2.852142 -3.912577
N -7.680685 0.594122 -1.073930
N -5.479066 0.351490 -1.005815
C -8.900915 -0.548055 -3.794944
C -8.178541 0.775321 -3.528456
C -7.243524 0.659598 -2.372115
C -5.881845 0.502665 -2.312863
C -6.592455 0.412500 -0.296588
H -8.172805 -1.341892 -3.999306
H -9.566545 -0.462893 -4.663700
H -9.504698 -0.841650 -2.928127
H -7.602540 1.083079 -4.409722
H -8.917691 1.561699 -3.331982
H -8.683435 0.659913 -0.763358
H -5.169769 0.496195 -3.129687
H -6.639030 0.342210 0.780061
C -13.977969 -0.139201 -2.012294
C -13.689011 -0.485781 -0.551416
C -12.551055 0.342953 0.042679
C -11.142538 0.024643 -0.512549
O -10.961819 -1.068882 -1.088015
O -10.271654 0.922552 -0.294611
H -13.087053 -0.322939 -2.620702
H -14.253521 0.918467 -2.118554
H -14.800238 -0.743987 -2.415402
H -14.600877 -0.335650 0.046099
H -13.421039 -1.545411 -0.481364
H -12.737723 1.415845 -0.091064
H -12.498635 0.178633 1.128074
N -2.698348 0.936027 -0.163919
O -3.069674 0.402364 -4.335791
N -1.422728 -1.034625 3.823797
N 1.734338 -1.938078 5.302984
C -5.241289 -2.438499 2.501154
C -3.416529 0.140118 4.565505
C -2.092177 -0.552687 4.897993
C -3.939620 1.041804 5.687384
C -2.971796 2.209163 5.905497
C -5.343151 1.549170 5.351575
C -0.336026 -1.943305 4.046623
C 0.944536 -1.241138 4.480036
C 3.067461 -1.502855 5.697799
O -1.710825 -0.756864 6.048175
O 1.245575 -0.128399 4.027995
H 3.366043 -2.073009 6.579923
H 3.782695 -1.660447 4.882900
H 3.032317 -0.440423 5.951554
H -6.049265 0.723577 5.225306
H -5.714346 2.201222 6.149986
H -5.337927 2.124563 4.418203
H -2.889708 2.819388 4.996126
H -3.334072 2.862561 6.706326
H -1.972414 1.860776 6.181391
H -3.978102 0.448147 6.609557
H -3.296513 0.743278 3.658563
H -1.798981 -0.977294 2.875077
H -0.128791 -2.454601 3.103043
H -0.621438 -2.702431 4.784371
H 1.414836 -2.845496 5.604609
O 4.948246 2.140278 0.398139
N -4.321719 -0.933740 4.181206
C -4.726100 -1.069392 2.877522
O -4.631055 -0.151012 2.080009
H -4.394906 -3.049764 2.167779
H -5.730832 -2.950131 3.335981
H -5.942303 -2.340391 1.669874
H -4.338292 -1.753659 4.771095
237       
inactive_Val51_TS3 Energy: -3585518.2646905
H 5.254729 1.087467 0.835969
H 4.056634 1.606705 0.049608
H -3.008564 -0.537432 -4.293758
H -2.572594 0.811693 -3.731924
N 4.455703 3.914228 2.615906
N 2.567532 4.979417 0.983876
N -0.992456 3.254438 2.018053
N 0.466936 6.200028 2.217306
C 3.238380 2.583800 4.236476
C 3.622160 3.933308 3.685473
C 4.798394 5.138602 1.932439
C 3.654689 5.772855 1.143535
C 1.449222 5.322040 0.134828
C 0.257775 5.892624 0.922102
C 1.076682 4.103156 -0.738483
C -0.020351 3.175221 -0.195531
C 0.075771 2.870708 1.279651
C -0.597374 6.769491 3.020247
O 3.166589 4.985314 4.143859
O 3.742700 6.909524 0.696418
O -0.834916 6.056672 0.376309
O 1.032382 2.277322 1.796363
H 2.965607 2.695649 5.288224
H 5.606233 4.925537 1.227375
H -1.038627 7.628856 2.508899
H -1.395762 6.038415 3.201169
H -0.179247 7.083572 3.978068
H 5.148456 5.888321 2.645871
H 2.365717 2.234845 3.672130
H 4.029037 1.831963 4.131448
H -0.934321 3.187897 3.025577
H -1.637520 3.931331 1.631090
H 4.661147 3.039585 2.128383
H 2.619536 4.026425 1.321902
H 1.363295 5.988764 2.640235
H -2.217885 1.546576 -1.046243
H -2.584704 1.598702 0.572103
H 0.746760 4.442551 -1.723033
H 1.998799 3.536094 -0.901764
H 1.786659 6.138334 -0.512961
H 0.034771 2.221430 -0.724975
H -1.000358 3.600907 -0.418824
H -3.590315 0.842875 -0.496690
N -2.530208 -4.190405 0.389316
N 2.585231 -0.411002 1.513965
C 2.219699 -1.290581 0.366060
C -3.808431 -3.833054 -1.689157
C -2.839869 -4.669557 -0.839780
C -3.759737 -2.315470 -1.451212
C -1.433342 -4.731977 1.185564
C -1.469392 -4.164518 2.602066
C -0.390946 -4.737229 3.533278
C 1.031973 -4.383302 3.085805
C -0.626675 -4.237823 4.962464
C 2.651462 -0.593772 -0.930510
C 0.727653 -1.646156 0.343081
C -0.223258 -0.489438 0.002355
C -1.649012 -1.013615 -0.042730
O -2.405892 -5.742982 -1.265338
O -2.202900 -1.440106 0.961575
O 2.722491 -1.304947 -1.956278
O 2.857451 0.651682 -0.877530
S -2.098360 -1.603251 -1.715437
H -4.828095 -4.188178 -1.491460
H -1.525451 -5.823308 1.202716
H -0.475862 -4.499490 0.699959
H -3.581271 -4.073954 -2.730973
H -2.722866 -3.210912 0.583268
H -1.370835 -3.071539 2.561841
H -2.460539 -4.373997 3.029601
H -0.491438 -5.833755 3.531205
H 0.119316 -4.649515 5.653266
H -0.549860 -3.143745 4.997994
H -1.621216 -4.518629 5.329961
H 1.768230 -4.843746 3.756929
H 1.263125 -4.714850 2.068337
H 1.178590 -3.297311 3.133168
H 0.611096 -2.446980 -0.392414
H 0.450160 -2.067572 1.314780
H -0.179847 0.272596 0.783633
H 0.037652 -0.021412 -0.953021
H -4.447225 -1.798961 -2.126493
H -4.073687 -2.022779 -0.442688
H 2.784825 -2.219989 0.477943
H 3.639349 -0.408813 1.626036
H 2.262742 0.551710 1.341144
H 2.148839 -0.731400 2.391828
N 1.709475 -3.965152 -2.291364
C 0.683997 -8.612047 -1.000006
C 1.343695 -7.291041 -0.603119
C 0.971590 -6.164443 -1.562968
C 1.703895 -4.862636 -1.278467
O 2.258914 -4.636637 -0.201326
H -0.406777 -8.508370 -1.025326
H 0.935225 -9.409970 -0.291859
H 1.011450 -8.932557 -1.996921
H 2.433726 -7.406117 -0.574921
H 1.041662 -7.007465 0.411002
H 1.176738 -6.465814 -2.599587
H -0.109741 -5.970694 -1.504956
H 1.111125 -4.106652 -3.090553
H 2.084637 -3.024604 -2.134195
C 8.882182 -3.299731 1.874362
C 7.428882 -2.814882 2.028841
C 7.319695 -1.407516 2.639837
C 5.903293 -0.803761 2.628879
O 5.360465 -0.513463 3.713334
O 5.362821 -0.608893 1.481183
H 8.911908 -4.316741 1.468541
H 9.407376 -3.299610 2.837774
H 9.430776 -2.644380 1.187481
H 6.945418 -2.814995 1.047609
H 6.869354 -3.521234 2.656007
H 7.676732 -1.417147 3.674884
H 7.973397 -0.729374 2.075366
N 0.229040 2.819143 -4.051242
N 3.483982 1.284145 -3.632869
N 4.707133 -1.216200 -4.105958
C -2.065106 3.680806 -4.357880
C -1.058983 2.786571 -3.660935
C -2.807357 4.693876 -3.462961
C -3.696598 4.044205 -2.399780
C -1.844804 5.709111 -2.846256
C 1.160427 1.833175 -3.545927
C 2.498395 1.932964 -4.277370
C 4.866402 1.233911 -4.056694
C 5.275526 -0.124541 -4.668045
C 5.771018 1.518907 -2.829259
C 7.250365 1.567845 -3.187985
C 5.168751 -2.571221 -4.356013
C 5.700615 -3.228658 -3.073241
C 6.857649 -2.463254 -2.480690
C 8.122197 -2.507823 -3.069597
C 6.684813 -1.640290 -1.366357
C 9.184060 -1.764360 -2.564123
C 7.731372 -0.881035 -0.857119
C 8.983806 -0.945326 -1.455071
O -1.410441 2.000496 -2.768024
O 2.594103 2.521537 -5.353962
O 6.127863 -0.176165 -5.554104
O 5.364847 2.744657 -2.243321
O 9.990766 -0.181587 -0.917486
H -2.792981 2.997394 -4.812453
H 0.755275 0.822957 -3.689423
H 4.344605 -3.173002 -4.759192
H 5.949882 -2.507546 -5.117424
H -1.572528 4.222980 -5.175259
H 1.311923 1.953783 -2.470660
H 6.002583 -4.255894 -3.316503
H 4.885603 -3.301243 -2.343573
H 3.982751 -1.094877 -3.397140
H -3.105906 3.535467 -1.633469
H -4.303600 4.810001 -1.903327
H -1.195929 6.165168 -3.604686
H -2.391511 6.509783 -2.337709
H -3.468689 5.236247 -4.153785
H 0.533153 3.334174 -4.868721
H 3.286155 1.014277 -2.666056
H 5.026197 1.994824 -4.824350
H 5.603192 0.704296 -2.110213
H 7.601268 0.617443 -3.598633
H 7.427697 2.356483 -3.926902
H 7.828582 1.793874 -2.286371
H 8.283265 -3.130011 -3.947163
H 10.161784 -1.815048 -3.040321
H 7.564586 -0.234032 -0.003824
H 5.719514 -1.578537 -0.869963
H 10.764804 -0.232628 -1.489941
H 5.356476 2.617669 -1.278576
H -1.210208 5.245573 -2.085064
H -4.373356 3.297221 -2.825984
N -7.610250 0.998941 -1.406855
N -5.395376 0.910179 -1.356268
C -8.900476 -0.548639 -3.794354
C -8.169738 0.798212 -3.838016
C -7.197673 0.921753 -2.712686
C -5.826214 0.868940 -2.664057
C -6.500817 0.987232 -0.638280
H -8.178627 -1.371886 -3.852085
H -9.595405 -0.643600 -4.638886
H -9.474569 -0.657626 -2.866888
H -7.623886 0.909545 -4.782964
H -8.905208 1.611395 -3.789766
H -8.608592 1.055713 -1.090134
H -5.124416 0.805611 -3.487492
H -6.534567 1.016832 0.440288
C -13.978914 -0.138707 -2.012529
C -13.639420 -0.093092 -0.522252
C -12.501080 0.873345 -0.197093
C -11.097777 0.436053 -0.683087
O -10.923974 -0.757704 -1.005484
O -10.226292 1.358930 -0.679088
H -13.102247 -0.461174 -2.582412
H -14.280496 0.852222 -2.377628
H -14.799694 -0.837742 -2.217997
H -14.536493 0.195193 0.046594
H -13.349463 -1.096066 -0.191304
H -12.707911 1.871147 -0.604648
H -12.423093 1.003912 0.891232
N -2.599541 1.018590 -0.263440
O -2.972585 0.398898 -4.519273
O 4.861556 1.929340 0.509893
N -4.195973 -0.590726 3.660700
N -1.097445 0.894808 4.233361
N 1.938746 -0.441652 5.794277
C -5.344140 -2.387720 2.467991
C -4.773553 -0.990138 2.490930
C -3.489485 0.668966 3.750911
C -2.309687 0.484005 4.699403
C -4.376091 1.824036 4.292622
C -3.602310 3.145399 4.345219
C -5.652234 2.001638 3.468198
C 0.056889 0.909283 5.091116
C 1.026818 -0.240594 4.832340
C 3.016777 -1.418521 5.684497
O -4.827801 -0.258245 1.515858
O -2.480289 0.088880 5.849168
O 0.979775 -0.894706 3.788397
H -4.635388 -3.044462 1.950677
H 2.606096 -2.356258 5.300610
H 3.424119 -1.590923 6.682819
H 3.811104 -1.070720 5.014899
H -5.528300 -2.797475 3.466361
H -6.275197 -2.375548 1.897859
H -4.140794 -1.216114 4.450625
H -3.148515 0.915199 2.739513
H -6.264599 1.096969 3.471014
H -6.253754 2.816988 3.886264
H -5.421129 2.240116 2.425171
H -4.653482 1.543180 5.317129
H -3.335664 3.465537 3.330494
H -4.226740 3.932202 4.780830
H -2.687217 3.076864 4.944520
H -0.939244 0.877409 3.233521
H -0.302356 0.883107 6.122965
H 0.607934 1.844624 4.939088
H 1.923740 0.170962 6.594948
