237       
inactive_fGln123_TS4 
H 5.434446 1.440408 0.604531
H 4.232472 1.588513 -0.319325
H -3.050260 -0.516395 -4.269687
H -2.761709 0.868245 -3.695928
H -2.279021 1.247966 -1.251730
H -2.414734 1.479304 0.380015
H -3.589009 0.612614 -0.411354
N -2.551328 -4.206878 0.404009
N 2.648288 -0.190733 1.442782
C 2.280414 -1.178895 0.398438
C -3.808673 -3.833091 -1.688994
C -2.883101 -4.698733 -0.817223
C -3.644852 -2.318887 -1.525256
C -1.434641 -4.731046 1.185452
C -1.678077 -4.636946 2.685534
C -0.582509 -5.343098 3.501754
C 0.817370 -4.761863 3.264607
C -0.937145 -5.349191 4.992021
C 2.691099 -0.585825 -0.958729
C 0.792336 -1.549200 0.409883
C -0.176922 -0.422324 0.017542
C -1.588619 -0.988207 -0.078086
O -2.498040 -5.794093 -1.230220
O -2.138659 -1.462294 0.925656
O 2.794092 -1.366675 -1.929473
O 2.853003 0.666399 -1.002478
S -1.931778 -1.709858 -1.738172
H -4.852014 -4.087600 -1.456403
H -1.297424 -5.777578 0.899161
H -0.519021 -4.196950 0.904667
H -3.621686 -4.142557 -2.720225
H -2.731931 -3.222031 0.581256
H -1.757693 -3.581139 2.982458
H -2.649691 -5.094449 2.913818
H -0.562652 -6.391160 3.166162
H -0.184017 -5.895689 5.572176
H -0.993701 -4.329420 5.393685
H -1.911482 -5.818634 5.168951
H 1.558110 -5.280083 3.885120
H 1.143750 -4.850223 2.223420
H 0.863368 -3.698582 3.532446
H 0.678444 -2.391629 -0.277295
H 0.531137 -1.927743 1.405356
H -0.187680 0.349873 0.795401
H 0.107454 0.048885 -0.929542
H -4.272539 -1.800799 -2.253543
H -3.987127 -1.970713 -0.546302
H 2.857100 -2.087018 0.594003
H 3.721375 -0.193273 1.561300
H 2.382933 0.743882 1.124627
H 2.221225 -0.366598 2.365049
N 1.761964 -3.990202 -2.223316
C 0.684497 -8.610748 -0.998507
C 1.300923 -7.282158 -0.568160
C 0.903172 -6.150079 -1.511243
C 1.598269 -4.840498 -1.185506
O 1.987102 -4.568945 -0.047987
H -0.408720 -8.538753 -1.032617
H 0.951612 -9.416909 -0.305569
H 1.030041 -8.900423 -1.998671
H 2.393873 -7.366143 -0.533882
H 0.984203 -7.025914 0.448669
H 1.122051 -6.430934 -2.550459
H -0.182738 -5.984474 -1.455135
H 1.318436 -4.180312 -3.107867
H 2.137706 -3.050450 -2.061935
C 8.882497 -3.298443 1.873297
C 7.387401 -2.975952 1.864702
C 7.078327 -1.601904 2.474092
C 5.599674 -1.240115 2.329976
O 4.754030 -1.924771 2.936728
O 5.306544 -0.253422 1.563401
H 9.073411 -4.284936 1.435992
H 9.286557 -3.293725 2.893806
H 9.438848 -2.557239 1.286925
H 7.025552 -3.001179 0.830653
H 6.825045 -3.739176 2.413846
H 7.324220 -1.620213 3.543898
H 7.696073 -0.833216 1.999907
N 0.185527 2.773938 -4.038360
N 3.468432 1.282322 -3.735412
N 4.676081 -1.220650 -4.163046
C -2.065415 3.680489 -4.360044
C -1.100465 2.727467 -3.677424
C -3.086864 4.350263 -3.414499
C -4.198521 3.413267 -2.931432
C -2.393972 5.043384 -2.235741
C 1.155570 1.850092 -3.493938
C 2.445992 1.927990 -4.314742
C 4.818502 1.223858 -4.256711
C 5.186087 -0.157576 -4.827168
C 5.805289 1.574702 -3.113322
C 7.266608 1.507924 -3.539124
C 5.168981 -2.571461 -4.356267
C 5.650072 -3.182724 -3.030776
C 6.780195 -2.392825 -2.417698
C 8.079896 -2.507543 -2.912589
C 6.554422 -1.481352 -1.383254
C 9.122863 -1.746087 -2.394736
C 7.581418 -0.702745 -0.863040
C 8.868909 -0.838213 -1.369033
O -1.484026 1.914508 -2.816442
O 2.466454 2.511272 -5.399478
O 5.970105 -0.254869 -5.770725
O 5.489584 2.863359 -2.625894
O 9.857106 -0.056750 -0.823965
H -2.596855 3.105917 -5.129057
H 0.766043 0.825686 -3.534367
H 4.384912 -3.205019 -4.790954
H 5.987107 -2.494180 -5.075637
H -1.486589 4.465063 -4.863817
H 1.355112 2.068962 -2.440214
H 5.968406 -4.214565 -3.227979
H 4.806318 -3.237643 -2.333341
H 3.990005 -1.078801 -3.421472
H -3.828640 2.691005 -2.200090
H -4.999513 3.987754 -2.452883
H -1.615997 5.738868 -2.572502
H -3.120931 5.608767 -1.641150
H -3.562170 5.131724 -4.023497
H 0.508204 3.326859 -4.824876
H 3.321776 1.005607 -2.759838
H 4.912958 1.950918 -5.066145
H 5.643244 0.837978 -2.314300
H 7.560687 0.495931 -3.831033
H 7.448256 2.182409 -4.382606
H 7.888375 1.821702 -2.694801
H 8.284600 -3.203125 -3.723614
H 10.129369 -1.854477 -2.795432
H 7.376674 0.007609 -0.070248
H 5.557191 -1.367211 -0.965715
H 10.671380 -0.183884 -1.324158
H 5.439412 2.794043 -1.652855
H -1.923611 4.299799 -1.580321
H -4.636714 2.844676 -3.757872
N -7.768400 0.263014 -0.856875
N -5.567785 0.223247 -0.549865
C -8.900803 -0.548360 -3.794581
C -8.013532 0.628040 -3.348897
C -7.208107 0.405026 -2.101702
C -5.848839 0.374581 -1.894824
C -6.759265 0.162504 0.028589
H -8.286139 -1.428558 -4.016417
H -9.449930 -0.276780 -4.703952
H -9.622154 -0.821257 -3.015183
H -7.307890 0.887644 -4.147722
H -8.651337 1.508752 -3.195909
H -8.803709 0.274716 -0.617985
H -5.065730 0.461470 -2.639727
H -6.933146 0.055777 1.090570
C -13.978344 -0.138949 -2.012466
C -13.738599 -0.832198 -0.671230
C -12.599257 -0.197376 0.124105
C -11.198059 -0.377567 -0.497868
O -11.010279 -1.329945 -1.281853
O -10.330470 0.471846 -0.119362
H -13.078989 -0.204826 -2.632426
H -14.217422 0.921895 -1.867688
H -14.808392 -0.600216 -2.562327
H -14.661605 -0.802625 -0.073396
H -13.495914 -1.885125 -0.849336
H -12.775307 0.874898 0.273012
H -12.552857 -0.641725 1.128123
N -2.577334 0.816975 -0.375137
O -3.351286 0.398672 -4.314376
N -4.097239 -0.302293 2.632922
N -1.470783 -0.672100 3.741081
N 1.623064 -1.673463 5.511949
C -5.242143 -2.438379 2.501406
C -4.577054 -1.359413 3.332122
C -3.362569 0.800440 3.227843
C -2.281929 0.308288 4.221714
C -4.257202 1.899130 3.839657
C -3.482604 3.218222 3.907268
C -5.543040 2.078451 3.029644
C -0.616184 -1.392567 4.640548
C 0.863772 -0.980480 4.639401
C 3.067522 -1.501048 5.699107
O -4.460345 -1.450241 4.551833
O -2.138557 0.799159 5.332913
O 1.312973 -0.104555 3.899437
H 3.356442 -2.126610 6.545409
H 3.624444 -1.788838 4.800995
H -6.059861 -2.854079 3.092141
H 3.284766 -0.454666 5.931455
H -5.621617 -2.068825 1.543797
H -4.516455 -3.235248 2.303266
H -6.195857 1.205918 3.114045
H -6.100587 2.949218 3.391659
H -5.334185 2.231640 1.962413
H -3.246118 3.564850 2.890977
H -4.085558 3.996530 4.388371
H -2.549093 3.112719 4.466057
H -4.511363 1.588154 4.857848
H -2.808674 1.251980 2.393853
H -1.659362 -1.046884 2.811325
H -0.665961 -2.457162 4.396165
H -1.009027 -1.266517 5.655396
H 1.164527 -2.400861 6.039660
H -4.193554 -0.317532 1.625428
O 4.992393 2.093192 0.030645
C 0.131896 7.049357 7.019831
C -0.146988 8.402114 6.404691
O -1.051105 9.142353 6.788452
N 0.667278 8.755011 5.370928
C 0.534121 10.028022 4.699896
C -0.677032 10.202343 3.779647
O -0.927843 11.310154 3.316860
N -1.402664 9.089541 3.541287
C -2.592338 9.096562 2.720167
C -3.897385 9.245532 3.526990
O -4.980615 9.226300 2.945336
C -2.672206 7.877154 1.791440
C -2.735427 6.497138 2.486604
C -1.369948 5.932860 2.839895
N -0.895104 4.965480 2.031315
O -0.704684 6.356939 3.791780
N -3.778901 9.415098 4.856617
C -4.941207 9.677090 5.684668
H -0.411763 6.971998 7.961821
H -5.498760 10.537736 5.303356
H -4.578924 9.886512 6.693628
H 1.433471 10.208647 4.105265
H -5.612812 8.813292 5.705094
H 0.463163 10.824145 5.445498
H -2.544611 9.995560 2.096760
H -0.225489 6.270300 6.336488
H 1.199402 6.882330 7.195654
H -3.586582 7.998055 1.205752
H -1.827477 7.907429 1.093863
H -3.267076 5.798975 1.832871
H -3.316510 6.561134 3.412966
H 0.000563 4.548100 2.241420
H -1.440432 4.580575 1.277008
H 1.263989 8.045277 4.971870
H -2.859185 9.430146 5.281247
H -1.080334 8.193178 3.905039
