237       
inactive_ES 
C 0.131158 7.050402 7.018421
C -0.093657 8.373437 6.320230
O -0.890657 9.219956 6.720613
N 0.659128 8.568298 5.201765
C 0.527004 9.767959 4.407145
C -0.752479 9.895271 3.576434
O -1.027299 10.965836 3.043097
N -1.507288 8.779641 3.494412
C -2.727424 8.714446 2.723053
C -3.996645 8.880597 3.583052
O -5.109041 8.711456 3.087375
C -2.789290 7.477513 1.814420
C -2.701773 6.087082 2.483723
C -1.289205 5.648512 2.844205
N -0.712848 4.754546 2.031984
O -0.697517 6.107695 3.839081
N -3.816607 9.289265 4.856181
C -4.942481 9.678298 5.683645
C -4.455207 -5.190604 4.396074
C -3.905102 -3.846273 3.958835
O -3.882627 -3.516326 2.774846
N -3.490778 -3.058264 4.973958
C -3.019880 -1.692165 4.862075
C -1.803963 -1.571036 5.781102
O -1.758173 -2.178040 6.855334
C -4.151987 -0.709919 5.282915
C -3.662020 0.695513 5.642373
C -5.206596 -0.647624 4.174789
N -0.834467 -0.741241 5.348767
C 0.281950 -0.394520 6.185822
C 1.581824 -1.070867 5.749711
O 1.870284 -1.176249 4.560305
N 2.405841 -1.461940 6.742764
C 3.719999 -2.037816 6.506452
C -3.361924 -4.112156 -1.710999
C -2.125700 -4.716062 -1.050280
O -1.283635 -5.290849 -1.750834
C -4.127977 -3.049331 -0.924652
N -1.990339 -4.612228 0.286245
C -0.759530 -5.014700 0.955832
C -0.745757 -4.504324 2.392016
C 0.525728 -4.854020 3.176208
C 1.774703 -4.165784 2.617796
C 0.332767 -4.475553 4.648116
C 2.523243 -7.676857 -1.853818
C 2.528314 -6.312790 -1.162559
C 1.953522 -5.229825 -2.071630
C 2.028559 -3.831376 -1.478224
N 0.955158 -3.044980 -1.710420
O 3.016009 -3.436788 -0.854122
C 9.693856 -1.796739 2.830382
C 8.243913 -1.547725 2.404761
C 7.564183 -0.466144 3.244676
C 6.123019 -0.141135 2.831690
O 5.441940 -1.074942 2.314935
O 5.710416 1.029964 3.045558
C -2.898229 3.983890 -2.585212
C -1.662280 3.873313 -1.701180
O -1.734356 3.776608 -0.466910
C -4.126817 4.653474 -1.946415
C -4.771801 3.811224 -0.839795
C -3.804364 6.070374 -1.463588
N -0.478321 3.830931 -2.332699
C 0.738353 3.475651 -1.644544
C 1.961638 3.744164 -2.516183
O 1.925401 4.562586 -3.431451
N 3.041349 3.034721 -2.135897
C 4.403630 3.394018 -2.468921
C 5.153493 2.305708 -3.256808
O 5.943989 2.608245 -4.150172
C 5.195460 3.699735 -1.159386
C 6.539989 4.348539 -1.452957
O 4.433997 4.534823 -0.308417
N 4.942114 1.037123 -2.837357
C 5.749044 -0.085905 -3.269741
C 6.494996 -0.729816 -2.090797
C 7.390326 0.249859 -1.372374
C 8.594470 0.675169 -1.933066
C 7.010233 0.799442 -0.145849
C 9.399932 1.609543 -1.288927
C 7.801082 1.734060 0.513865
C 9.000117 2.138041 -0.063387
O 9.757787 3.063719 0.611777
C -8.711150 -1.474757 -3.779889
C -8.211545 -0.076082 -3.390309
C -7.408358 -0.062882 -2.127793
C -6.074160 0.156065 -1.884740
N -7.965280 -0.314935 -0.899810
C -6.976288 -0.237841 0.013084
N -5.807238 0.050971 -0.536307
C -13.879017 -2.174846 -2.729062
C -13.710137 -2.482276 -1.240474
C -12.808226 -1.481587 -0.518522
C -11.306020 -1.565958 -0.872223
O -10.880871 -2.587944 -1.447967
O -10.619039 -0.560842 -0.504902
N 2.905721 -0.333833 2.045798
C 2.007839 -0.783120 0.947452
C 2.293700 -0.013782 -0.354190
O 3.288797 0.763456 -0.374271
C 0.537911 -0.650249 1.359581
C 0.093057 0.811627 1.527901
C -1.370292 0.882841 1.909785
N -2.223797 1.227731 0.946990
O -1.736888 0.612863 3.066176
O 1.501380 -0.207675 -1.302072
O 3.847524 2.500876 1.643854
O -1.138037 0.723012 -1.772829
H -12.904562 -2.197765 -3.226638
H -7.863537 -2.153727 -3.931923
H 1.505290 -7.965022 -2.140872
H 10.159390 -2.577572 2.217932
H -0.404504 7.053033 7.968040
H -3.145989 2.952911 -2.872891
H -9.283486 -1.428278 -4.714381
H -14.316955 -1.178891 -2.877764
H -5.463419 10.540174 5.252662
H -4.567257 9.936885 6.675447
H 1.377763 9.833036 3.723476
H 5.111089 -0.836397 -3.752426
H 0.705747 2.424330 -1.336902
H -4.039042 -4.943094 -1.945940
H -0.666903 -6.108734 0.934180
H -4.047448 -5.968326 3.745229
H 3.663802 -3.125742 6.390996
H 4.375646 -1.791218 7.344584
H 9.752152 -2.113307 3.880088
H 2.924675 -8.458797 -1.198999
H -14.532617 -2.907145 -3.219545
H -9.357271 -1.895691 -3.000545
H -3.019537 -3.705175 -2.667198
H 0.083799 -4.611077 0.386648
H 3.134087 -7.656007 -2.764848
H 10.294494 -0.884859 2.725216
H -5.659090 8.856028 5.768213
H 4.132274 -1.614384 5.588346
H 0.845648 4.086143 -0.740582
H -2.627878 4.510680 -3.509545
H 6.451274 0.295900 -4.014920
H 0.556761 10.641416 5.062629
H -4.231986 -5.436489 5.438229
H -5.540977 -5.180610 4.258550
H 4.364570 4.283755 -3.100145
H -2.731921 9.597703 2.073606
H -0.248682 6.241395 6.383899
H 1.197070 6.873574 7.193083
H -14.698767 -2.493765 -0.757733
H -13.279160 -3.482903 -1.128506
H -13.143717 -0.452317 -0.697830
H -12.876948 -1.634040 0.567436
H -7.590275 0.342777 -4.191737
H -9.074262 0.591735 -3.273417
H -8.993217 -0.500239 -0.726781
H -7.144572 -0.398801 1.068495
H -5.289742 0.382593 -2.596230
H -2.660333 -4.080990 0.833310
H -0.887280 -3.414086 2.390916
H -1.611920 -4.923186 2.918903
H 0.671837 -5.943660 3.114257
H 1.220520 -4.723083 5.242404
H 0.161996 -3.396496 4.738917
H -0.530289 -4.987307 5.090246
H 2.668386 -4.462977 3.177943
H 1.959529 -4.391026 1.562739
H 1.677950 -3.079810 2.724554
H -3.474637 -3.427302 5.914795
H -2.738345 -1.503179 3.822586
H -5.590210 -1.639371 3.918317
H -6.052254 -0.023395 4.484488
H -4.774632 -0.215195 3.265354
H -4.607613 -1.148718 6.182488
H -3.145266 1.156760 4.796342
H -4.521132 1.322438 5.906370
H -2.984292 0.684999 6.503430
H -0.981544 -0.234300 4.468666
H 0.027510 -0.640955 7.220329
H 0.456999 0.686108 6.119373
H 2.041543 -1.464963 7.682668
H 3.543759 -6.034239 -0.862353
H 1.930046 -6.363913 -0.243401
H 2.532162 -5.194819 -3.006092
H 0.919382 -5.473374 -2.331878
H 0.141734 -3.425127 -2.172295
H 1.022437 -2.041652 -1.533464
H 7.080974 -1.572784 -2.479472
H 5.767098 -1.151560 -1.387713
H 8.909884 0.277601 -2.895119
H 6.072323 0.486614 0.304369
H 7.481246 2.150627 1.463984
H 10.335280 1.930069 -1.745036
H 10.498605 3.328377 0.054505
H 7.661208 -2.472166 2.470719
H 8.220012 -1.245678 1.351304
H 7.535138 -0.779232 4.299586
H 8.140162 0.465253 3.216752
H 3.930400 -0.663378 1.986443
H 2.962280 0.691778 2.105553
H 2.564508 -0.676771 2.953850
H 2.247360 -1.833690 0.746564
H -0.073200 -1.133974 0.591916
H 0.371515 -1.192879 2.297437
H 0.659344 1.295669 2.331873
H 0.269660 1.368579 0.602920
H -3.216904 1.247104 1.137083
H -1.900995 1.427459 0.001602
H 2.919493 2.330477 -1.410518
H -0.416037 3.950114 -3.333860
H -4.862836 4.738996 -2.758303
H -4.099637 3.715466 0.016982
H -5.702160 4.281657 -0.501596
H -3.394617 6.687793 -2.272302
H -4.704186 6.565745 -1.081736
H -3.066783 6.041816 -0.654863
H -5.020074 2.802559 -1.188636
H 5.374290 2.741288 -0.656667
H 7.155755 3.715716 -2.098811
H 6.387675 5.314238 -1.947659
H 7.071951 4.515103 -0.511596
H -3.746976 7.529675 1.290566
H -2.001532 7.568933 1.057884
H -3.139995 5.354540 1.798099
H -3.299450 6.072843 3.401934
H 0.240078 4.482125 2.232332
H -1.146139 4.389937 1.181048
H 1.115435 7.762088 4.796863
H -2.875979 9.408502 5.210042
H -1.154394 7.903167 3.881331
S -3.055659 -1.640217 -0.444861
H -4.941961 -2.656636 -1.539988
H -4.575696 -3.466336 -0.016678
H 4.586843 2.113024 2.171428
H 3.780991 1.912907 0.863523
H -0.222025 0.391457 -1.688393
H -1.694229 -0.074513 -1.753301
H 4.289705 0.870402 -2.073572
H 4.204614 4.018167 0.487111
H -4.093277 -0.761535 -0.279515
