237       
inactive_fGln123_ES 
H 5.491513 1.422296 0.573613
H 4.273880 1.675136 -0.308608
H -4.043473 -1.373478 -4.526260
H -5.514603 -1.041079 -4.217449
N -2.351852 -4.070881 0.277802
N 2.701226 -0.115754 1.501866
C 2.221112 -1.062284 0.464103
C -3.808646 -3.833117 -1.688972
C -2.924395 -4.681522 -0.778419
C -3.664220 -2.319378 -1.722249
C -1.434670 -4.731184 1.185231
C -1.890161 -4.662413 2.641253
C -0.980443 -5.464285 3.585793
C 0.493706 -5.045398 3.508687
C -1.503136 -5.386861 5.023262
C 2.678687 -0.517546 -0.899168
C 0.698326 -1.248338 0.506970
C -0.104946 0.032952 0.263744
C -1.601636 -0.216688 0.293868
O -2.801626 -5.886120 -1.012209
O -2.070654 -1.198666 0.897169
O 2.765162 -1.321933 -1.852352
O 2.889324 0.726909 -0.959489
S -2.211133 -1.862222 -2.748580
H -4.852050 -4.087674 -1.456625
H -1.297446 -5.777730 0.899005
H -0.453918 -4.254877 1.079372
H -3.656663 -4.242451 -2.694788
H -2.380403 -3.058938 0.354981
H -1.937284 -3.611097 2.964045
H -2.913588 -5.053461 2.714261
H -1.037735 -6.516139 3.267114
H -0.895146 -6.001013 5.698374
H -1.481977 -4.355139 5.397134
H -2.540978 -5.732085 5.089334
H 1.093635 -5.629160 4.217213
H 0.923418 -5.187643 2.512187
H 0.628779 -3.986620 3.764856
H 0.437305 -2.001894 -0.243170
H 0.427144 -1.674062 1.478563
H 0.098443 0.764286 1.059350
H 0.169802 0.513830 -0.682155
H -4.560366 -1.886207 -2.167790
H -3.567178 -1.876884 -0.729964
H 2.695489 -2.028419 0.654273
H 3.777585 -0.177680 1.579546
H 2.486761 0.838030 1.203184
H 2.290302 -0.280307 2.433999
N 1.645666 -3.930573 -2.078648
C 0.684467 -8.610837 -0.998779
C 1.227509 -7.264630 -0.517529
C 0.795321 -6.115618 -1.428370
C 1.443189 -4.788973 -1.056726
O 1.760245 -4.517282 0.103076
H -0.408540 -8.582331 -1.078061
H 0.951575 -9.417038 -0.305861
H 1.084303 -8.867921 -1.987263
H 2.322462 -7.298255 -0.465557
H 0.882224 -7.057717 0.501156
H 1.028171 -6.357901 -2.473943
H -0.295944 -5.991744 -1.373626
H 1.290143 -4.135704 -2.998612
H 2.034369 -2.997622 -1.908388
C 8.882493 -3.298668 1.873146
C 7.392392 -2.963928 1.867494
C 7.107965 -1.587786 2.482750
C 5.635149 -1.211166 2.346318
O 4.787612 -1.861663 2.986861
O 5.345663 -0.251327 1.545333
H 9.073394 -4.285161 1.435831
H 9.287150 -3.296225 2.893501
H 9.443427 -2.559800 1.288009
H 7.026639 -2.980464 0.834651
H 6.823041 -3.721368 2.417499
H 7.361735 -1.612105 3.550296
H 7.731648 -0.827258 2.003067
N 0.060455 2.538997 -4.088278
N 3.421844 1.263075 -3.705249
N 4.655137 -1.229519 -4.160872
C -2.065454 3.680480 -4.359997
C -1.106514 2.848504 -3.504218
C -3.243575 4.342406 -3.624417
C -4.275224 3.333954 -3.115121
C -2.776064 5.287340 -2.511980
C 1.089577 1.768175 -3.431593
C 2.342528 1.765858 -4.318498
C 4.754626 1.212846 -4.270606
C 5.123528 -0.163369 -4.850266
C 5.766958 1.564508 -3.150752
C 7.219819 1.486255 -3.603279
C 5.168947 -2.571543 -4.356404
C 5.656248 -3.171366 -3.028044
C 6.790852 -2.377140 -2.428347
C 8.084447 -2.489921 -2.939728
C 6.576075 -1.466188 -1.391042
C 9.132585 -1.726651 -2.435438
C 7.609143 -0.687246 -0.882963
C 8.890298 -0.820152 -1.405680
O -1.374221 2.464776 -2.355173
O 2.290794 2.183260 -5.476773
O 5.878764 -0.254203 -5.816909
O 5.466132 2.857663 -2.664574
O 9.884198 -0.038183 -0.872175
H -2.451281 3.019895 -5.148016
H 0.767336 0.730950 -3.269240
H 4.394141 -3.217813 -4.789802
H 5.987106 -2.494173 -5.075724
H -1.486528 4.465058 -4.863694
H 1.317475 2.188479 -2.447390
H 5.972594 -4.205519 -3.216412
H 4.815674 -3.217704 -2.325652
H 3.986563 -1.088265 -3.402956
H -3.861233 2.715257 -2.315711
H -5.159767 3.845318 -2.719832
H -2.057599 6.025002 -2.889915
H -3.628307 5.832542 -2.090472
H -3.740853 4.958486 -4.387425
H 0.294031 2.842165 -5.028112
H 3.319946 1.067299 -2.704385
H 4.825524 1.940555 -5.082291
H 5.616582 0.833475 -2.343996
H 7.505853 0.468380 -3.882826
H 7.388865 2.145691 -4.461020
H 7.857490 1.811369 -2.775269
H 8.280145 -3.185424 -3.753091
H 10.134044 -1.833213 -2.849030
H 7.414599 0.021573 -0.086348
H 5.583903 -1.352139 -0.961251
H 10.692651 -0.164345 -1.381961
H 5.478219 2.802288 -1.689691
H -2.294820 4.725327 -1.705718
H -4.609223 2.669899 -3.920765
N -7.637980 0.197111 -0.899674
N -5.427668 0.279632 -0.655419
C -8.900826 -0.548327 -3.794615
C -7.987934 0.617080 -3.368684
C -7.127475 0.389909 -2.157559
C -5.760521 0.431522 -1.986881
C -6.596814 0.144949 -0.045274
H -8.304846 -1.437664 -4.033760
H -9.453807 -0.263992 -4.697260
H -9.622141 -0.821284 -3.015190
H -7.318949 0.885697 -4.196526
H -8.613525 1.498790 -3.178058
H -5.002064 0.608159 -2.738839
H -6.731573 0.023899 1.020882
C -13.978350 -0.138956 -2.012453
C -13.677732 -0.812787 -0.672419
C -12.500467 -0.176698 0.066563
C -11.113959 -0.436319 -0.560302
O -10.981202 -1.393203 -1.348510
O -10.197727 0.360762 -0.177557
H -13.106611 -0.207135 -2.670685
H -14.217411 0.921888 -1.867662
H -14.828663 -0.611761 -2.519355
H -14.573152 -0.766902 -0.035167
H -13.450859 -1.870320 -0.843410
H -12.636930 0.907492 0.163253
H -12.450602 -0.567057 1.092467
O -4.880219 -1.112899 -4.943527
N -4.088848 -0.309466 2.682041
N -1.499339 -0.705297 3.797515
N 1.627099 -1.699095 5.505179
C -5.242163 -2.438557 2.501299
C -4.601045 -1.364705 3.358738
C -3.384435 0.794484 3.311393
C -2.286008 0.294089 4.282442
C -4.320271 1.823428 3.984602
C -3.612353 3.175442 4.105392
C -5.624491 1.981681 3.199383
C -0.627755 -1.427443 4.677764
C 0.849246 -1.003468 4.652896
C 3.067546 -1.501393 5.698976
O -4.541946 -1.453334 4.582751
O -2.112400 0.784329 5.389647
O 1.275348 -0.113541 3.915676
H 3.356452 -2.126895 6.545341
H 3.635544 -1.776502 4.804420
H -6.059836 -2.854279 3.092070
H 3.265327 -0.452694 5.938540
H -5.614010 -2.062548 1.544055
H -4.509834 -3.228408 2.301851
H -6.237200 1.077494 3.245825
H -6.215433 2.806445 3.612627
H -5.433776 2.202194 2.140778
H -3.433631 3.591542 3.104783
H -4.237913 3.890253 4.651685
H -2.655586 3.088729 4.626412
H -4.547529 1.453491 4.989075
H -2.864339 1.300761 2.485400
H -1.700732 -1.081301 2.874544
H -0.678715 -2.491433 4.427122
H -1.002842 -1.308095 5.700173
H 1.178520 -2.427056 6.040581
H -4.088767 -0.355508 1.672988
O 5.080529 2.114667 0.023172
C 0.131958 7.049034 7.019989
C -0.139626 8.391122 6.378790
O -1.027226 9.151878 6.760648
N 0.663812 8.709107 5.325533
C 0.527913 9.963577 4.620847
C -0.702639 10.119821 3.723453
O -0.965494 11.218636 3.245616
N -1.430297 9.001483 3.522062
C -2.629586 8.987233 2.715824
C -3.923833 9.158007 3.535464
O -5.015494 9.114954 2.970876
C -2.716381 7.748361 1.813409
C -2.789132 6.378902 2.527658
C -1.432950 5.800578 2.895906
N -1.011512 4.746539 2.171837
O -0.730482 6.283071 3.793061
N -3.787970 9.379067 4.856458
C -4.941125 9.676844 5.684910
H -0.408943 6.993708 7.965084
H -5.480085 10.546848 5.297202
H -4.578845 9.886217 6.693880
H 1.415446 10.117366 4.001391
H -5.632784 8.829254 5.711128
H 0.480815 10.781826 5.343866
H -2.591120 9.871495 2.070698
H -0.230194 6.257668 6.353664
H 1.199473 6.881998 7.195799
H -3.630214 7.862731 1.225577
H -1.872767 7.762114 1.114200
H -3.326893 5.678883 1.881208
H -3.373106 6.460238 3.451405
H -0.132524 4.311391 2.413926
H -1.592703 4.296212 1.482558
H 1.240494 7.980447 4.930799
H -2.862621 9.411272 5.267418
H -1.094129 8.108831 3.883903
N -2.392684 0.692069 -0.297252
H -3.412324 0.541130 -0.330881
H -1.998259 1.399227 -0.916746
H -2.205348 -0.550575 -2.453815
H -8.673233 0.171683 -0.642158
